10
-1.5445490513333755e+02 frame 114   xyz file generated by TeraChem
     C     0.0005240883   -0.0012570649    0.0007163852
     C     1.4406107039   -0.0031708063    0.0015611237
     C     2.1462047122    1.1864785536   -0.0006924223
     C     2.8932012408    0.9412549820    1.2211816742
     H    -0.5270526683    0.6919195679    0.6239562811
     H    -0.5099762741   -0.3780687943   -0.8703664119
     H     1.9869129635   -0.9349622149    0.0255038337
     H     1.6451136441    2.1192657793   -0.1651338404
     H     3.5406275177    0.0885122737    1.3051463906
     H     2.6491294325    1.4457868419    2.1400368912
