10
-1.5457010613340336e+02 frame 40   xyz file generated by TeraChem
     C    -1.6353859354   -0.3269506053    0.1162534613
     C    -0.3374955620   -0.4542036317    0.3954528334
     C     0.7267084973    0.0071592949   -0.4700743798
     C     2.0246044269   -0.1201649202   -0.1909432228
     H    -1.9737038885    0.1387556266   -0.7931286755
     H    -2.3944412574   -0.6840961630    0.7876542965
     H    -0.0399227504   -0.9270219880    1.3174993080
     H     0.4291044885    0.4798364876   -1.3921827465
     H     2.3629306408   -0.5857024878    0.7185194081
     H     2.7836613398    0.2367183869   -0.8624802828
